[General]
output-vector-file = ${resultdir}/${inifile}/${inifile}-${configname}-${runnumber}.vec
output-scalar-file = ${resultdir}/${inifile}/${inifile}-${configname}-${runnumber}.sca
ned-path = ../../../../inet-2.5.0-src/inet/src; ../../../../../openflow

sim-time-limit = 600s
repeat = 4
seed-set = ${repetition}


**.numClients = 2


**.nrOfControllers.scalar-recording = true
**.nrOfSwitches.scalar-recording = true
**.nrOfClients.scalar-recording = true
**.switchesPerController**.scalar-recording = true
**.*E2EL**.scalar-recording = true
**.*Eccentricity**.scalar-recording = true
**.*Degree**.scalar-recording = true
**.*Betweenness**.scalar-recording = true
**.*betweenness**.scalar-recording = true
**.graphCentralization.scalar-recording = true
**.*Farness**.scalar-recording = true
**.*farness**.scalar-recording = true
**.*Closeness**.scalar-recording = true
**.*closeness**.scalar-recording = true
**.*NodeDisjoint**.scalar-recording = true
**.*EdgeDistinct**.scalar-recording = true
**.*ClusteringCoefficient**.scalar-recording = true
**.*NodeExpansion**.scalar-recording = true
**.*richClub**.scalar-recording = true
**.*HopCount**.scalar-recording = true
**.*Connectivity**.scalar-recording = true
**.*Persistence**.scalar-recording = true
**.*nodesWithDegree**.scalar-recording = true
**.cpd**.scalar-recording = true
**.assortativity.scalar-recording = true
**.radius**.scalar-recording = true
**.diameter**.scalar-recording = true
**.*hopCount**.scalar-recording = true
**.*C2CL**.scalar-recording = true
**.*C2SL**.scalar-recording = true
**.*C2RL**.scalar-recording = true

**.pingApp[*].rtt*.vector-recording = true
**.bytesPerSecondAt*.scalar-recording = true
**.packetsPerSecondAt*.scalar-recording = true
**.flowTable**.scalar-recording = true

**.Analyzer.scalar-recording = true
**.Analyzer.vector-recording = true


**.vector-recording = false
**.scalar-recording = false


**.spanningTree.NodeType = "openflow.nodes.Open_Flow_Domain"
**.spanningTree.startNode = 4
**.highlightActivePorts = true

# random ping application
**.client[*].numPingApps = 1
**.client[*].pingApp[*].typename = "PingAppRandom"
**.client[*].pingApp[*].startTime = uniform(100s,120s)



#openflow params
**.open_flow_switch.OF_Switch.connectAt = uniform(0s,1s)
**.open_flow_switch.etherMAC[*].promiscuous = true

# 404bytes see imix and buffer size of 1.5mb see hp switch 1500000/404
**.OF_Switch.bufferCapacity = 3712


**.OF_Switch.serviceTime = 0.000035s

#1800 00 requests per second on 8xcores 8xthreads and 32 switches (hotice2012-final)
**.open_flow_controller*.serviceTime = 0.000005556s

#hf 987 reads p s
**.hf_synchronizer*.serviceTime =  0.001013171s

**.open_flow_controller*.numControllerApps = 3
**.open_flow_controller*.controllerApps[0].typename = "LLDPForwarding"
**.open_flow_controller*.controllerApps[0].printMibGraph = false

#refer to beacon leraning switch code
**.open_flow_controller*.controllerApps[0].flowModIdleTimeOut = (${timeout = 60,55,50,45,40,35,30,25,20,15,10,5})
**.open_flow_controller*.controllerApps[0].ignoreArpRequests = true

**.open_flow_controller*.controllerApps[1].typename = "HF_LLDPAgent"
**.open_flow_controller*.controllerApps[1].flowModIdleTimeOut = 140
**.open_flow_controller*.controllerApps[1].printMibGraph = true

**.open_flow_controller*.controllerApps[2].typename = "HF_ARPResponder"

**.open_flow_controller*.numTcpControllerApps = 1
**.open_flow_controller*.tcpControllerApps[0].typename = "HyperFlowAgent"
**.open_flow_controller*.tcpControllerApps[0].connectAddressHyperFlowSynchronizer = "hf_synchronizer"
**.open_flow_controller*.tcpControllerApps[0].checkSyncEvery=250ms
**.open_flow_controller*.tcpControllerApps[0].serviceTime=0.000005556s



# NIC configuration
**.ppp[*].queue.frameCapacity = 10  # in routers
**.open_flow_switch*.tcp.mss = 800


#linux mint 15 std value
**.arp.cacheTimeout = 60s
**.client[*].pingApp[*].sendInterval = 1s
network = openflow.networks.random.Barabasi_Albert_uniform_low_0_HF

[Config cfg1]
**.placementID = 1
**.numControllers = 2
**.ofs_18.open_flow_switch*.OF_Switch.connectAddress = "open_flow_controller1"
**.ofs_24.open_flow_switch*.OF_Switch.connectAddress = "open_flow_controller2"
**.ofs_0.open_flow_switch*.OF_Switch.connectAddress = "open_flow_controller1"
**.ofs_1.open_flow_switch*.OF_Switch.connectAddress = "open_flow_controller1"
**.ofs_2.open_flow_switch*.OF_Switch.connectAddress = "open_flow_controller1"
**.ofs_3.open_flow_switch*.OF_Switch.connectAddress = "open_flow_controller1"
**.ofs_4.open_flow_switch*.OF_Switch.connectAddress = "open_flow_controller1"
**.ofs_5.open_flow_switch*.OF_Switch.connectAddress = "open_flow_controller1"
**.ofs_6.open_flow_switch*.OF_Switch.connectAddress = "open_flow_controller1"
**.ofs_7.open_flow_switch*.OF_Switch.connectAddress = "open_flow_controller1"
**.ofs_8.open_flow_switch*.OF_Switch.connectAddress = "open_flow_controller1"
**.ofs_9.open_flow_switch*.OF_Switch.connectAddress = "open_flow_controller1"
**.ofs_10.open_flow_switch*.OF_Switch.connectAddress = "open_flow_controller1"
**.ofs_11.open_flow_switch*.OF_Switch.connectAddress = "open_flow_controller1"
**.ofs_12.open_flow_switch*.OF_Switch.connectAddress = "open_flow_controller1"
**.ofs_13.open_flow_switch*.OF_Switch.connectAddress = "open_flow_controller1"
**.ofs_14.open_flow_switch*.OF_Switch.connectAddress = "open_flow_controller1"
**.ofs_15.open_flow_switch*.OF_Switch.connectAddress = "open_flow_controller1"
**.ofs_16.open_flow_switch*.OF_Switch.connectAddress = "open_flow_controller1"
**.ofs_17.open_flow_switch*.OF_Switch.connectAddress = "open_flow_controller1"
**.ofs_19.open_flow_switch*.OF_Switch.connectAddress = "open_flow_controller1"
**.ofs_20.open_flow_switch*.OF_Switch.connectAddress = "open_flow_controller1"
**.ofs_21.open_flow_switch*.OF_Switch.connectAddress = "open_flow_controller1"
**.ofs_22.open_flow_switch*.OF_Switch.connectAddress = "open_flow_controller1"
**.ofs_23.open_flow_switch*.OF_Switch.connectAddress = "open_flow_controller1"
**.ofs_25.open_flow_switch*.OF_Switch.connectAddress = "open_flow_controller1"
**.ofs_26.open_flow_switch*.OF_Switch.connectAddress = "open_flow_controller1"
**.ofs_27.open_flow_switch*.OF_Switch.connectAddress = "open_flow_controller1"
**.ofs_28.open_flow_switch*.OF_Switch.connectAddress = "open_flow_controller1"
**.ofs_29.open_flow_switch*.OF_Switch.connectAddress = "open_flow_controller1"
**.ofs_30.open_flow_switch*.OF_Switch.connectAddress = "open_flow_controller1"

[Config cfg2]
**.placementID = 2
**.numControllers = 2
**.ofs_8.open_flow_switch*.OF_Switch.connectAddress = "open_flow_controller1"
**.ofs_15.open_flow_switch*.OF_Switch.connectAddress = "open_flow_controller2"
**.ofs_0.open_flow_switch*.OF_Switch.connectAddress = "open_flow_controller2"
**.ofs_1.open_flow_switch*.OF_Switch.connectAddress = "open_flow_controller2"
**.ofs_2.open_flow_switch*.OF_Switch.connectAddress = "open_flow_controller2"
**.ofs_3.open_flow_switch*.OF_Switch.connectAddress = "open_flow_controller2"
**.ofs_4.open_flow_switch*.OF_Switch.connectAddress = "open_flow_controller2"
**.ofs_5.open_flow_switch*.OF_Switch.connectAddress = "open_flow_controller2"
**.ofs_6.open_flow_switch*.OF_Switch.connectAddress = "open_flow_controller1"
**.ofs_7.open_flow_switch*.OF_Switch.connectAddress = "open_flow_controller2"
**.ofs_9.open_flow_switch*.OF_Switch.connectAddress = "open_flow_controller2"
**.ofs_10.open_flow_switch*.OF_Switch.connectAddress = "open_flow_controller2"
**.ofs_11.open_flow_switch*.OF_Switch.connectAddress = "open_flow_controller2"
**.ofs_12.open_flow_switch*.OF_Switch.connectAddress = "open_flow_controller1"
**.ofs_13.open_flow_switch*.OF_Switch.connectAddress = "open_flow_controller2"
**.ofs_14.open_flow_switch*.OF_Switch.connectAddress = "open_flow_controller2"
**.ofs_16.open_flow_switch*.OF_Switch.connectAddress = "open_flow_controller2"
**.ofs_17.open_flow_switch*.OF_Switch.connectAddress = "open_flow_controller2"
**.ofs_18.open_flow_switch*.OF_Switch.connectAddress = "open_flow_controller2"
**.ofs_19.open_flow_switch*.OF_Switch.connectAddress = "open_flow_controller2"
**.ofs_20.open_flow_switch*.OF_Switch.connectAddress = "open_flow_controller2"
**.ofs_21.open_flow_switch*.OF_Switch.connectAddress = "open_flow_controller2"
**.ofs_22.open_flow_switch*.OF_Switch.connectAddress = "open_flow_controller2"
**.ofs_23.open_flow_switch*.OF_Switch.connectAddress = "open_flow_controller2"
**.ofs_24.open_flow_switch*.OF_Switch.connectAddress = "open_flow_controller2"
**.ofs_25.open_flow_switch*.OF_Switch.connectAddress = "open_flow_controller2"
**.ofs_26.open_flow_switch*.OF_Switch.connectAddress = "open_flow_controller2"
**.ofs_27.open_flow_switch*.OF_Switch.connectAddress = "open_flow_controller2"
**.ofs_28.open_flow_switch*.OF_Switch.connectAddress = "open_flow_controller2"
**.ofs_29.open_flow_switch*.OF_Switch.connectAddress = "open_flow_controller2"
**.ofs_30.open_flow_switch*.OF_Switch.connectAddress = "open_flow_controller2"

[Config cfg3]
**.placementID = 3
**.numControllers = 2
**.ofs_17.open_flow_switch*.OF_Switch.connectAddress = "open_flow_controller1"
**.ofs_22.open_flow_switch*.OF_Switch.connectAddress = "open_flow_controller2"
**.ofs_0.open_flow_switch*.OF_Switch.connectAddress = "open_flow_controller1"
**.ofs_1.open_flow_switch*.OF_Switch.connectAddress = "open_flow_controller1"
**.ofs_2.open_flow_switch*.OF_Switch.connectAddress = "open_flow_controller1"
**.ofs_3.open_flow_switch*.OF_Switch.connectAddress = "open_flow_controller1"
**.ofs_4.open_flow_switch*.OF_Switch.connectAddress = "open_flow_controller1"
**.ofs_5.open_flow_switch*.OF_Switch.connectAddress = "open_flow_controller1"
**.ofs_6.open_flow_switch*.OF_Switch.connectAddress = "open_flow_controller1"
**.ofs_7.open_flow_switch*.OF_Switch.connectAddress = "open_flow_controller1"
**.ofs_8.open_flow_switch*.OF_Switch.connectAddress = "open_flow_controller1"
**.ofs_9.open_flow_switch*.OF_Switch.connectAddress = "open_flow_controller1"
**.ofs_10.open_flow_switch*.OF_Switch.connectAddress = "open_flow_controller1"
**.ofs_11.open_flow_switch*.OF_Switch.connectAddress = "open_flow_controller1"
**.ofs_12.open_flow_switch*.OF_Switch.connectAddress = "open_flow_controller1"
**.ofs_13.open_flow_switch*.OF_Switch.connectAddress = "open_flow_controller1"
**.ofs_14.open_flow_switch*.OF_Switch.connectAddress = "open_flow_controller1"
**.ofs_15.open_flow_switch*.OF_Switch.connectAddress = "open_flow_controller1"
**.ofs_16.open_flow_switch*.OF_Switch.connectAddress = "open_flow_controller1"
**.ofs_18.open_flow_switch*.OF_Switch.connectAddress = "open_flow_controller1"
**.ofs_19.open_flow_switch*.OF_Switch.connectAddress = "open_flow_controller1"
**.ofs_20.open_flow_switch*.OF_Switch.connectAddress = "open_flow_controller1"
**.ofs_21.open_flow_switch*.OF_Switch.connectAddress = "open_flow_controller1"
**.ofs_23.open_flow_switch*.OF_Switch.connectAddress = "open_flow_controller1"
**.ofs_24.open_flow_switch*.OF_Switch.connectAddress = "open_flow_controller1"
**.ofs_25.open_flow_switch*.OF_Switch.connectAddress = "open_flow_controller1"
**.ofs_26.open_flow_switch*.OF_Switch.connectAddress = "open_flow_controller1"
**.ofs_27.open_flow_switch*.OF_Switch.connectAddress = "open_flow_controller1"
**.ofs_28.open_flow_switch*.OF_Switch.connectAddress = "open_flow_controller1"
**.ofs_29.open_flow_switch*.OF_Switch.connectAddress = "open_flow_controller1"
**.ofs_30.open_flow_switch*.OF_Switch.connectAddress = "open_flow_controller1"

[Config cfg4]
**.placementID = 4
**.numControllers = 3
**.ofs_16.open_flow_switch*.OF_Switch.connectAddress = "open_flow_controller1"
**.ofs_4.open_flow_switch*.OF_Switch.connectAddress = "open_flow_controller2"
**.ofs_2.open_flow_switch*.OF_Switch.connectAddress = "open_flow_controller3"
**.ofs_0.open_flow_switch*.OF_Switch.connectAddress = "open_flow_controller2"
**.ofs_1.open_flow_switch*.OF_Switch.connectAddress = "open_flow_controller2"
**.ofs_3.open_flow_switch*.OF_Switch.connectAddress = "open_flow_controller2"
**.ofs_5.open_flow_switch*.OF_Switch.connectAddress = "open_flow_controller3"
**.ofs_6.open_flow_switch*.OF_Switch.connectAddress = "open_flow_controller2"
**.ofs_7.open_flow_switch*.OF_Switch.connectAddress = "open_flow_controller2"
**.ofs_8.open_flow_switch*.OF_Switch.connectAddress = "open_flow_controller2"
**.ofs_9.open_flow_switch*.OF_Switch.connectAddress = "open_flow_controller2"
**.ofs_10.open_flow_switch*.OF_Switch.connectAddress = "open_flow_controller2"
**.ofs_11.open_flow_switch*.OF_Switch.connectAddress = "open_flow_controller2"
**.ofs_12.open_flow_switch*.OF_Switch.connectAddress = "open_flow_controller2"
**.ofs_13.open_flow_switch*.OF_Switch.connectAddress = "open_flow_controller2"
**.ofs_14.open_flow_switch*.OF_Switch.connectAddress = "open_flow_controller2"
**.ofs_15.open_flow_switch*.OF_Switch.connectAddress = "open_flow_controller3"
**.ofs_17.open_flow_switch*.OF_Switch.connectAddress = "open_flow_controller2"
**.ofs_18.open_flow_switch*.OF_Switch.connectAddress = "open_flow_controller2"
**.ofs_19.open_flow_switch*.OF_Switch.connectAddress = "open_flow_controller3"
**.ofs_20.open_flow_switch*.OF_Switch.connectAddress = "open_flow_controller2"
**.ofs_21.open_flow_switch*.OF_Switch.connectAddress = "open_flow_controller2"
**.ofs_22.open_flow_switch*.OF_Switch.connectAddress = "open_flow_controller2"
**.ofs_23.open_flow_switch*.OF_Switch.connectAddress = "open_flow_controller2"
**.ofs_24.open_flow_switch*.OF_Switch.connectAddress = "open_flow_controller2"
**.ofs_25.open_flow_switch*.OF_Switch.connectAddress = "open_flow_controller2"
**.ofs_26.open_flow_switch*.OF_Switch.connectAddress = "open_flow_controller2"
**.ofs_27.open_flow_switch*.OF_Switch.connectAddress = "open_flow_controller2"
**.ofs_28.open_flow_switch*.OF_Switch.connectAddress = "open_flow_controller2"
**.ofs_29.open_flow_switch*.OF_Switch.connectAddress = "open_flow_controller2"
**.ofs_30.open_flow_switch*.OF_Switch.connectAddress = "open_flow_controller2"

[Config cfg5]
**.placementID = 5
**.numControllers = 3
**.ofs_15.open_flow_switch*.OF_Switch.connectAddress = "open_flow_controller1"
**.ofs_24.open_flow_switch*.OF_Switch.connectAddress = "open_flow_controller2"
**.ofs_12.open_flow_switch*.OF_Switch.connectAddress = "open_flow_controller3"
**.ofs_0.open_flow_switch*.OF_Switch.connectAddress = "open_flow_controller2"
**.ofs_1.open_flow_switch*.OF_Switch.connectAddress = "open_flow_controller2"
**.ofs_2.open_flow_switch*.OF_Switch.connectAddress = "open_flow_controller1"
**.ofs_3.open_flow_switch*.OF_Switch.connectAddress = "open_flow_controller2"
**.ofs_4.open_flow_switch*.OF_Switch.connectAddress = "open_flow_controller2"
**.ofs_5.open_flow_switch*.OF_Switch.connectAddress = "open_flow_controller1"
**.ofs_6.open_flow_switch*.OF_Switch.connectAddress = "open_flow_controller3"
**.ofs_7.open_flow_switch*.OF_Switch.connectAddress = "open_flow_controller2"
**.ofs_8.open_flow_switch*.OF_Switch.connectAddress = "open_flow_controller3"
**.ofs_9.open_flow_switch*.OF_Switch.connectAddress = "open_flow_controller2"
**.ofs_10.open_flow_switch*.OF_Switch.connectAddress = "open_flow_controller2"
**.ofs_11.open_flow_switch*.OF_Switch.connectAddress = "open_flow_controller2"
**.ofs_13.open_flow_switch*.OF_Switch.connectAddress = "open_flow_controller2"
**.ofs_14.open_flow_switch*.OF_Switch.connectAddress = "open_flow_controller2"
**.ofs_16.open_flow_switch*.OF_Switch.connectAddress = "open_flow_controller2"
**.ofs_17.open_flow_switch*.OF_Switch.connectAddress = "open_flow_controller2"
**.ofs_18.open_flow_switch*.OF_Switch.connectAddress = "open_flow_controller2"
**.ofs_19.open_flow_switch*.OF_Switch.connectAddress = "open_flow_controller1"
**.ofs_20.open_flow_switch*.OF_Switch.connectAddress = "open_flow_controller2"
**.ofs_21.open_flow_switch*.OF_Switch.connectAddress = "open_flow_controller2"
**.ofs_22.open_flow_switch*.OF_Switch.connectAddress = "open_flow_controller2"
**.ofs_23.open_flow_switch*.OF_Switch.connectAddress = "open_flow_controller2"
**.ofs_25.open_flow_switch*.OF_Switch.connectAddress = "open_flow_controller2"
**.ofs_26.open_flow_switch*.OF_Switch.connectAddress = "open_flow_controller2"
**.ofs_27.open_flow_switch*.OF_Switch.connectAddress = "open_flow_controller2"
**.ofs_28.open_flow_switch*.OF_Switch.connectAddress = "open_flow_controller2"
**.ofs_29.open_flow_switch*.OF_Switch.connectAddress = "open_flow_controller2"
**.ofs_30.open_flow_switch*.OF_Switch.connectAddress = "open_flow_controller2"

[Config cfg6]
**.placementID = 6
**.numControllers = 3
**.ofs_16.open_flow_switch*.OF_Switch.connectAddress = "open_flow_controller1"
**.ofs_3.open_flow_switch*.OF_Switch.connectAddress = "open_flow_controller2"
**.ofs_26.open_flow_switch*.OF_Switch.connectAddress = "open_flow_controller3"
**.ofs_0.open_flow_switch*.OF_Switch.connectAddress = "open_flow_controller1"
**.ofs_1.open_flow_switch*.OF_Switch.connectAddress = "open_flow_controller1"
**.ofs_2.open_flow_switch*.OF_Switch.connectAddress = "open_flow_controller1"
**.ofs_4.open_flow_switch*.OF_Switch.connectAddress = "open_flow_controller1"
**.ofs_5.open_flow_switch*.OF_Switch.connectAddress = "open_flow_controller1"
**.ofs_6.open_flow_switch*.OF_Switch.connectAddress = "open_flow_controller1"
**.ofs_7.open_flow_switch*.OF_Switch.connectAddress = "open_flow_controller1"
**.ofs_8.open_flow_switch*.OF_Switch.connectAddress = "open_flow_controller1"
**.ofs_9.open_flow_switch*.OF_Switch.connectAddress = "open_flow_controller1"
**.ofs_10.open_flow_switch*.OF_Switch.connectAddress = "open_flow_controller1"
**.ofs_11.open_flow_switch*.OF_Switch.connectAddress = "open_flow_controller1"
**.ofs_12.open_flow_switch*.OF_Switch.connectAddress = "open_flow_controller1"
**.ofs_13.open_flow_switch*.OF_Switch.connectAddress = "open_flow_controller1"
**.ofs_14.open_flow_switch*.OF_Switch.connectAddress = "open_flow_controller1"
**.ofs_15.open_flow_switch*.OF_Switch.connectAddress = "open_flow_controller1"
**.ofs_17.open_flow_switch*.OF_Switch.connectAddress = "open_flow_controller1"
**.ofs_18.open_flow_switch*.OF_Switch.connectAddress = "open_flow_controller1"
**.ofs_19.open_flow_switch*.OF_Switch.connectAddress = "open_flow_controller1"
**.ofs_20.open_flow_switch*.OF_Switch.connectAddress = "open_flow_controller1"
**.ofs_21.open_flow_switch*.OF_Switch.connectAddress = "open_flow_controller1"
**.ofs_22.open_flow_switch*.OF_Switch.connectAddress = "open_flow_controller1"
**.ofs_23.open_flow_switch*.OF_Switch.connectAddress = "open_flow_controller1"
**.ofs_24.open_flow_switch*.OF_Switch.connectAddress = "open_flow_controller1"
**.ofs_25.open_flow_switch*.OF_Switch.connectAddress = "open_flow_controller3"
**.ofs_27.open_flow_switch*.OF_Switch.connectAddress = "open_flow_controller1"
**.ofs_28.open_flow_switch*.OF_Switch.connectAddress = "open_flow_controller1"
**.ofs_29.open_flow_switch*.OF_Switch.connectAddress = "open_flow_controller1"
**.ofs_30.open_flow_switch*.OF_Switch.connectAddress = "open_flow_controller2"

[Config cfg7]
**.placementID = 7
**.numControllers = 5
**.ofs_18.open_flow_switch*.OF_Switch.connectAddress = "open_flow_controller1"
**.ofs_8.open_flow_switch*.OF_Switch.connectAddress = "open_flow_controller2"
**.ofs_23.open_flow_switch*.OF_Switch.connectAddress = "open_flow_controller3"
**.ofs_24.open_flow_switch*.OF_Switch.connectAddress = "open_flow_controller4"
**.ofs_29.open_flow_switch*.OF_Switch.connectAddress = "open_flow_controller5"
**.ofs_0.open_flow_switch*.OF_Switch.connectAddress = "open_flow_controller1"
**.ofs_1.open_flow_switch*.OF_Switch.connectAddress = "open_flow_controller1"
**.ofs_2.open_flow_switch*.OF_Switch.connectAddress = "open_flow_controller1"
**.ofs_3.open_flow_switch*.OF_Switch.connectAddress = "open_flow_controller1"
**.ofs_4.open_flow_switch*.OF_Switch.connectAddress = "open_flow_controller1"
**.ofs_5.open_flow_switch*.OF_Switch.connectAddress = "open_flow_controller1"
**.ofs_6.open_flow_switch*.OF_Switch.connectAddress = "open_flow_controller2"
**.ofs_7.open_flow_switch*.OF_Switch.connectAddress = "open_flow_controller1"
**.ofs_9.open_flow_switch*.OF_Switch.connectAddress = "open_flow_controller1"
**.ofs_10.open_flow_switch*.OF_Switch.connectAddress = "open_flow_controller3"
**.ofs_11.open_flow_switch*.OF_Switch.connectAddress = "open_flow_controller1"
**.ofs_12.open_flow_switch*.OF_Switch.connectAddress = "open_flow_controller2"
**.ofs_13.open_flow_switch*.OF_Switch.connectAddress = "open_flow_controller1"
**.ofs_14.open_flow_switch*.OF_Switch.connectAddress = "open_flow_controller1"
**.ofs_15.open_flow_switch*.OF_Switch.connectAddress = "open_flow_controller1"
**.ofs_16.open_flow_switch*.OF_Switch.connectAddress = "open_flow_controller1"
**.ofs_17.open_flow_switch*.OF_Switch.connectAddress = "open_flow_controller1"
**.ofs_19.open_flow_switch*.OF_Switch.connectAddress = "open_flow_controller1"
**.ofs_20.open_flow_switch*.OF_Switch.connectAddress = "open_flow_controller1"
**.ofs_21.open_flow_switch*.OF_Switch.connectAddress = "open_flow_controller1"
**.ofs_22.open_flow_switch*.OF_Switch.connectAddress = "open_flow_controller3"
**.ofs_25.open_flow_switch*.OF_Switch.connectAddress = "open_flow_controller1"
**.ofs_26.open_flow_switch*.OF_Switch.connectAddress = "open_flow_controller1"
**.ofs_27.open_flow_switch*.OF_Switch.connectAddress = "open_flow_controller1"
**.ofs_28.open_flow_switch*.OF_Switch.connectAddress = "open_flow_controller1"
**.ofs_30.open_flow_switch*.OF_Switch.connectAddress = "open_flow_controller1"

[Config cfg8]
**.placementID = 8
**.numControllers = 5
**.ofs_14.open_flow_switch*.OF_Switch.connectAddress = "open_flow_controller1"
**.ofs_13.open_flow_switch*.OF_Switch.connectAddress = "open_flow_controller2"
**.ofs_20.open_flow_switch*.OF_Switch.connectAddress = "open_flow_controller3"
**.ofs_16.open_flow_switch*.OF_Switch.connectAddress = "open_flow_controller4"
**.ofs_8.open_flow_switch*.OF_Switch.connectAddress = "open_flow_controller5"
**.ofs_0.open_flow_switch*.OF_Switch.connectAddress = "open_flow_controller4"
**.ofs_1.open_flow_switch*.OF_Switch.connectAddress = "open_flow_controller4"
**.ofs_2.open_flow_switch*.OF_Switch.connectAddress = "open_flow_controller4"
**.ofs_3.open_flow_switch*.OF_Switch.connectAddress = "open_flow_controller4"
**.ofs_4.open_flow_switch*.OF_Switch.connectAddress = "open_flow_controller4"
**.ofs_5.open_flow_switch*.OF_Switch.connectAddress = "open_flow_controller4"
**.ofs_6.open_flow_switch*.OF_Switch.connectAddress = "open_flow_controller5"
**.ofs_7.open_flow_switch*.OF_Switch.connectAddress = "open_flow_controller4"
**.ofs_9.open_flow_switch*.OF_Switch.connectAddress = "open_flow_controller4"
**.ofs_10.open_flow_switch*.OF_Switch.connectAddress = "open_flow_controller4"
**.ofs_11.open_flow_switch*.OF_Switch.connectAddress = "open_flow_controller4"
**.ofs_12.open_flow_switch*.OF_Switch.connectAddress = "open_flow_controller5"
**.ofs_15.open_flow_switch*.OF_Switch.connectAddress = "open_flow_controller4"
**.ofs_17.open_flow_switch*.OF_Switch.connectAddress = "open_flow_controller4"
**.ofs_18.open_flow_switch*.OF_Switch.connectAddress = "open_flow_controller4"
**.ofs_19.open_flow_switch*.OF_Switch.connectAddress = "open_flow_controller4"
**.ofs_21.open_flow_switch*.OF_Switch.connectAddress = "open_flow_controller4"
**.ofs_22.open_flow_switch*.OF_Switch.connectAddress = "open_flow_controller4"
**.ofs_23.open_flow_switch*.OF_Switch.connectAddress = "open_flow_controller4"
**.ofs_24.open_flow_switch*.OF_Switch.connectAddress = "open_flow_controller4"
**.ofs_25.open_flow_switch*.OF_Switch.connectAddress = "open_flow_controller4"
**.ofs_26.open_flow_switch*.OF_Switch.connectAddress = "open_flow_controller4"
**.ofs_27.open_flow_switch*.OF_Switch.connectAddress = "open_flow_controller4"
**.ofs_28.open_flow_switch*.OF_Switch.connectAddress = "open_flow_controller4"
**.ofs_29.open_flow_switch*.OF_Switch.connectAddress = "open_flow_controller4"
**.ofs_30.open_flow_switch*.OF_Switch.connectAddress = "open_flow_controller4"

[Config cfg9]
**.placementID = 9
**.numControllers = 5
**.ofs_1.open_flow_switch*.OF_Switch.connectAddress = "open_flow_controller1"
**.ofs_28.open_flow_switch*.OF_Switch.connectAddress = "open_flow_controller2"
**.ofs_3.open_flow_switch*.OF_Switch.connectAddress = "open_flow_controller3"
**.ofs_21.open_flow_switch*.OF_Switch.connectAddress = "open_flow_controller4"
**.ofs_18.open_flow_switch*.OF_Switch.connectAddress = "open_flow_controller5"
**.ofs_0.open_flow_switch*.OF_Switch.connectAddress = "open_flow_controller5"
**.ofs_2.open_flow_switch*.OF_Switch.connectAddress = "open_flow_controller5"
**.ofs_4.open_flow_switch*.OF_Switch.connectAddress = "open_flow_controller5"
**.ofs_5.open_flow_switch*.OF_Switch.connectAddress = "open_flow_controller5"
**.ofs_6.open_flow_switch*.OF_Switch.connectAddress = "open_flow_controller5"
**.ofs_7.open_flow_switch*.OF_Switch.connectAddress = "open_flow_controller5"
**.ofs_8.open_flow_switch*.OF_Switch.connectAddress = "open_flow_controller5"
**.ofs_9.open_flow_switch*.OF_Switch.connectAddress = "open_flow_controller5"
**.ofs_10.open_flow_switch*.OF_Switch.connectAddress = "open_flow_controller5"
**.ofs_11.open_flow_switch*.OF_Switch.connectAddress = "open_flow_controller5"
**.ofs_12.open_flow_switch*.OF_Switch.connectAddress = "open_flow_controller5"
**.ofs_13.open_flow_switch*.OF_Switch.connectAddress = "open_flow_controller5"
**.ofs_14.open_flow_switch*.OF_Switch.connectAddress = "open_flow_controller5"
**.ofs_15.open_flow_switch*.OF_Switch.connectAddress = "open_flow_controller5"
**.ofs_16.open_flow_switch*.OF_Switch.connectAddress = "open_flow_controller5"
**.ofs_17.open_flow_switch*.OF_Switch.connectAddress = "open_flow_controller1"
**.ofs_19.open_flow_switch*.OF_Switch.connectAddress = "open_flow_controller5"
**.ofs_20.open_flow_switch*.OF_Switch.connectAddress = "open_flow_controller5"
**.ofs_22.open_flow_switch*.OF_Switch.connectAddress = "open_flow_controller5"
**.ofs_23.open_flow_switch*.OF_Switch.connectAddress = "open_flow_controller5"
**.ofs_24.open_flow_switch*.OF_Switch.connectAddress = "open_flow_controller1"
**.ofs_25.open_flow_switch*.OF_Switch.connectAddress = "open_flow_controller5"
**.ofs_26.open_flow_switch*.OF_Switch.connectAddress = "open_flow_controller5"
**.ofs_27.open_flow_switch*.OF_Switch.connectAddress = "open_flow_controller5"
**.ofs_29.open_flow_switch*.OF_Switch.connectAddress = "open_flow_controller1"
**.ofs_30.open_flow_switch*.OF_Switch.connectAddress = "open_flow_controller3"
